Version 4
SHEET 1 2864 1444
WIRE 1792 -112 1680 -112
WIRE 1920 -112 1792 -112
WIRE 2032 -112 1920 -112
WIRE 2384 -112 2288 -112
WIRE 2560 -112 2384 -112
WIRE 2816 -112 2560 -112
WIRE 288 -96 -16 -96
WIRE 544 -96 288 -96
WIRE 1520 -80 1296 -80
WIRE 1680 -64 1680 -112
WIRE 1792 -64 1792 -112
WIRE 288 -48 288 -96
WIRE 544 -16 544 -96
WIRE 1520 32 1520 -80
WIRE 1680 32 1680 0
WIRE 1680 32 1520 32
WIRE 1920 48 1920 -112
WIRE 2384 48 2384 -112
WIRE 2560 48 2560 -112
WIRE -608 64 -608 16
WIRE 288 64 288 32
WIRE -16 96 -16 -96
WIRE 1792 96 1792 0
WIRE 1792 96 1520 96
WIRE 1680 128 1680 32
WIRE 1792 128 1792 96
WIRE 544 144 544 64
WIRE 656 144 544 144
WIRE 288 192 288 144
WIRE 400 192 288 192
WIRE 544 208 544 144
WIRE 288 240 288 192
WIRE 1520 304 1520 96
WIRE 1520 304 1312 304
WIRE 1680 304 1680 192
WIRE 1792 304 1792 192
WIRE 1792 304 1680 304
WIRE 1920 304 1920 112
WIRE 1920 304 1792 304
WIRE 2160 304 2160 -16
WIRE 2160 304 1920 304
WIRE 2176 304 2160 304
WIRE 2384 304 2384 112
WIRE 2384 304 2176 304
WIRE 2560 304 2560 128
WIRE 2560 304 2384 304
WIRE -16 368 -16 176
WIRE 288 368 288 320
WIRE 288 368 -16 368
WIRE 544 368 544 288
WIRE 544 368 288 368
WIRE 592 576 528 576
WIRE 704 576 672 576
WIRE -272 592 -336 592
WIRE -160 592 -192 592
WIRE 400 640 352 640
WIRE 528 640 528 576
WIRE 528 640 480 640
WIRE -464 656 -528 656
WIRE -336 656 -336 592
WIRE -336 656 -384 656
WIRE 592 672 592 640
WIRE -272 688 -272 656
WIRE 528 688 528 640
WIRE 560 688 528 688
WIRE -336 704 -336 656
WIRE -304 704 -336 704
WIRE 704 704 704 576
WIRE 704 704 624 704
WIRE 768 704 704 704
WIRE -160 720 -160 592
WIRE -160 720 -240 720
WIRE -96 720 -160 720
WIRE 368 720 352 720
WIRE 416 720 368 720
WIRE 528 720 496 720
WIRE 560 720 528 720
WIRE -496 736 -512 736
WIRE -448 736 -496 736
WIRE -336 736 -368 736
WIRE -304 736 -336 736
WIRE 528 752 528 720
WIRE -336 768 -336 736
WIRE 416 1120 336 1120
WIRE 560 1120 496 1120
WIRE 688 1120 560 1120
WIRE -432 1136 -512 1136
WIRE -288 1136 -352 1136
WIRE -160 1136 -288 1136
WIRE 560 1168 560 1120
WIRE -288 1184 -288 1136
WIRE -288 1392 -288 1248
WIRE 560 1392 560 1232
FLAG 400 192 Vis
FLAG 656 144 Vvs
FLAG -272 656 5V
FLAG -336 848 Voff
FLAG -496 736 Vis
FLAG -96 720 Vio
FLAG -608 16 Voff
FLAG 592 640 5V
FLAG 528 832 Voff
FLAG 368 720 Vvs
FLAG 768 704 Vvo
FLAG -512 1136 Vio
FLAG -160 1136 Vfilt
FLAG 336 1120 Vvo
FLAG 688 1120 Vfilt
FLAG 560 1392 0
FLAG -288 1392 0
FLAG 2176 304 0
FLAG -528 656 0
FLAG 352 640 0
FLAG 288 368 0
FLAG 288 -96 Vac
FLAG 1296 -80 Vac
FLAG 2816 -112 5V
FLAG 592 736 0
FLAG -272 752 0
SYMBOL voltage -16 80 R0
WINDOW 123 0 0 Left 0
WINDOW 39 0 0 Left 0
SYMATTR InstName V1
SYMATTR Value SINE(0 19.799 500)
SYMBOL res 272 48 R0
SYMATTR InstName Rload
SYMATTR Value 25
SYMBOL res 272 224 R0
SYMATTR InstName Rs
SYMATTR Value 282m
SYMBOL res 528 -32 R0
SYMATTR InstName Ra
SYMATTR Value 22k
SYMBOL res 528 192 R0
SYMATTR InstName Rb
SYMATTR Value 1k
SYMBOL ind 272 -64 R0
SYMATTR InstName Lload
SYMATTR Value 4mH
SYMBOL OpAmps\\opamp2 -272 656 R0
SYMATTR InstName U1
SYMATTR Value LM324
SYMBOL res -352 752 R0
SYMATTR InstName R1
SYMATTR Value 3.9k
SYMBOL res -352 720 R90
WINDOW 0 0 56 VBottom 2
WINDOW 3 32 56 VTop 2
SYMATTR InstName R2
SYMATTR Value 1k
SYMBOL res -176 576 R90
WINDOW 0 0 56 VBottom 2
WINDOW 3 32 56 VTop 2
SYMATTR InstName R3
SYMATTR Value 3.9k
SYMBOL res -368 640 R90
WINDOW 0 0 56 VBottom 2
WINDOW 3 32 56 VTop 2
SYMATTR InstName R4
SYMATTR Value 1k
SYMBOL voltage -608 48 R0
WINDOW 123 0 0 Left 0
WINDOW 39 0 0 Left 0
SYMATTR InstName V3
SYMATTR Value 2.1
SYMBOL OpAmps\\opamp2 592 640 R0
SYMATTR InstName U2
SYMATTR Value LM324
SYMBOL res 512 736 R0
SYMATTR InstName R5
SYMATTR Value 100k
SYMBOL res 512 704 R90
WINDOW 0 0 56 VBottom 2
WINDOW 3 32 56 VTop 2
SYMATTR InstName R6
SYMATTR Value 100k
SYMBOL res 688 560 R90
WINDOW 0 0 56 VBottom 2
WINDOW 3 32 56 VTop 2
SYMATTR InstName R7
SYMATTR Value 100k
SYMBOL res 496 624 R90
WINDOW 0 0 56 VBottom 2
WINDOW 3 32 56 VTop 2
SYMATTR InstName R8
SYMATTR Value 100k
SYMBOL res -336 1120 R90
WINDOW 0 0 56 VBottom 2
WINDOW 3 32 56 VTop 2
SYMATTR InstName R9
SYMATTR Value 1k
SYMBOL cap -304 1184 R0
SYMATTR InstName C1
SYMATTR Value 15.878n
SYMBOL res 512 1104 R90
WINDOW 0 0 56 VBottom 2
WINDOW 3 32 56 VTop 2
SYMATTR InstName R10
SYMATTR Value 1k
SYMBOL cap 544 1168 R0
SYMATTR InstName C2
SYMATTR Value 15.878n
SYMBOL diode 1696 0 R180
WINDOW 0 24 64 Left 2
WINDOW 3 24 0 Left 2
SYMATTR InstName D1
SYMBOL diode 1808 0 R180
WINDOW 0 24 64 Left 2
WINDOW 3 24 0 Left 2
SYMATTR InstName D2
SYMBOL diode 1696 192 R180
WINDOW 0 24 64 Left 2
WINDOW 3 24 0 Left 2
SYMATTR InstName D3
SYMBOL diode 1808 192 R180
WINDOW 0 24 64 Left 2
WINDOW 3 24 0 Left 2
SYMATTR InstName D4
SYMBOL cap 2368 48 R0
SYMATTR InstName C3
SYMATTR Value 10µ
SYMBOL res 2544 32 R0
SYMATTR InstName R11
SYMATTR Value 100
SYMBOL PowerProducts\\LT1085-5 2160 -112 R0
SYMATTR InstName U3
SYMBOL cap 1904 48 R0
SYMATTR InstName C4
SYMATTR Value 47µ
TEXT -8 -176 Left 2 !.tran 0 0.5 0 0.01m
TEXT 280 -184 Left 2 ;Main circuit
TEXT -512 480 Left 2 ;Current amplification
TEXT 336 472 Left 2 ;Voltage amplification
TEXT -8 -144 Left 2 !.lib LM324.lib
TEXT 336 504 Left 2 ;A unity Gain amplifier that offsets the input voltage by 2.1V
TEXT -512 520 Left 2 ;An Amplifier with a gain of 3.9 and an offset of 2.1V
TEXT -512 1016 Left 2 ;Filter circuit to remove noise (Current)
TEXT 336 1000 Left 2 ;Filter circuit to remove noise (Voltage)
TEXT 1288 -184 Left 2 ;Creating the DC Voltage
TEXT 1288 -144 Left 2 ;Full wave rectifier with a 5V regulator
