Version 4
SHEET 1 880 944
WIRE 288 -96 -16 -96
WIRE 544 -96 288 -96
WIRE 288 -48 288 -96
WIRE 544 -16 544 -96
WIRE -752 64 -752 16
WIRE -608 64 -608 16
WIRE 288 64 288 32
WIRE -16 96 -16 -96
WIRE 544 144 544 64
WIRE 656 144 544 144
WIRE 288 192 288 144
WIRE 400 192 288 192
WIRE 544 208 544 144
WIRE 288 240 288 192
WIRE -16 368 -16 176
WIRE 288 368 288 320
WIRE 288 368 -16 368
WIRE 544 368 544 288
WIRE 544 368 288 368
WIRE 288 400 288 368
WIRE -272 592 -336 592
WIRE -160 592 -192 592
WIRE -464 656 -528 656
WIRE -336 656 -336 592
WIRE -336 656 -384 656
WIRE -272 688 -272 656
WIRE -336 704 -336 656
WIRE -304 704 -336 704
WIRE -160 720 -160 592
WIRE -160 720 -240 720
WIRE -96 720 -160 720
WIRE -496 736 -512 736
WIRE -448 736 -496 736
WIRE -336 736 -368 736
WIRE -304 736 -336 736
WIRE -336 768 -336 736
FLAG 288 400 0
FLAG 400 192 Vis
FLAG 656 144 Vvs
FLAG -272 656 Vsup
FLAG -272 752 0
FLAG -528 656 0
FLAG -336 848 Voff
FLAG -496 736 Vis
FLAG -96 720 Vio
FLAG -608 144 0
FLAG -752 144 0
FLAG -608 16 Voff
FLAG -752 16 Vsup
SYMBOL voltage -16 80 R0
WINDOW 123 0 0 Left 0
WINDOW 39 0 0 Left 0
SYMATTR InstName V1
SYMATTR Value SINE(0 19.799 500)
SYMBOL res 272 48 R0
SYMATTR InstName Rload
SYMATTR Value 25
SYMBOL res 272 224 R0
SYMATTR InstName Rs
SYMATTR Value 282m
SYMBOL res 528 -32 R0
SYMATTR InstName Ra
SYMATTR Value 22k
SYMBOL res 528 192 R0
SYMATTR InstName Rb
SYMATTR Value 1k
SYMBOL ind 272 -64 R0
SYMATTR InstName Lload
SYMATTR Value 4mH
SYMBOL OpAmps\\opamp2 -272 656 R0
SYMATTR InstName U1
SYMATTR Value LM324
SYMBOL res -352 752 R0
SYMATTR InstName R1
SYMATTR Value 3.9k
SYMBOL res -352 720 R90
WINDOW 0 0 56 VBottom 2
WINDOW 3 32 56 VTop 2
SYMATTR InstName R2
SYMATTR Value 1k
SYMBOL res -176 576 R90
WINDOW 0 0 56 VBottom 2
WINDOW 3 32 56 VTop 2
SYMATTR InstName R3
SYMATTR Value 3.9k
SYMBOL res -368 640 R90
WINDOW 0 0 56 VBottom 2
WINDOW 3 32 56 VTop 2
SYMATTR InstName R4
SYMATTR Value 1k
SYMBOL voltage -752 48 R0
WINDOW 123 0 0 Left 0
WINDOW 39 0 0 Left 0
SYMATTR InstName V2
SYMATTR Value 5
SYMBOL voltage -608 48 R0
WINDOW 123 0 0 Left 0
WINDOW 39 0 0 Left 0
SYMATTR InstName V3
SYMATTR Value 2.1
TEXT -8 -176 Left 2 !.tran 0 0.5 0 0.01m
TEXT 280 -184 Left 2 ;Main circuit
TEXT -512 480 Left 2 ;Current amplification
TEXT 336 472 Left 2 ;Voltage amplification
TEXT -8 -144 Left 2 !.lib LM324.lib
